
.MODEL BCX56 NPN 
+ IS=6.8405E-014 
+ NF=0.9951 
+ ISE=5.801E-015 
+ NE=1.302 
+ BF=143 
+ IKF=0.45 
+ VAF=8 
+ NR=0.9851 
+ ISC=2.266E-014 
+ NC=1.361 
+ BR=35.83 
+ IKR=1.8 
+ VAR=81 
+ RB=10.4 
+ IRB=0.0011 
+ RBM=2.5 
+ RE=0.0864 
+ RC=0.1173 
+ XTB=0 
+ EG=1.11 
+ XTI=3 
+ CJE=1.442E-010 
+ VJE=0.7013 
+ MJE=0.3245 
+ TF=7.8E-010 
+ XTF=7 
+ VTF=5 
+ ITF=2 
+ PTF=0 
+ CJC=2.052E-011 
+ VJC=0.5 
+ MJC=0.4015 
+ XCJC=1 
+ TR=2.3E-008 
+ CJS=0 
+ VJS=0.75 
+ MJS=0.333 
+ FC=0.9 